[Format]      =  4.0
[Frequency]   =  0
[Precision]   =  1e-08
[MinAngle]    =  30
[Depth]       =  1
[LengthUnits] =  millimeters
[ProblemType] =  planar
[Coordinates] =  cartesian
[ACSolver]    =  0
[forcemaxmesh] =  0
[dosmartmesh] =  1
[Comment]     =  ""
[PointProps]   = 0
[BdryProps]   = 0
[BlockProps]  = 4
  <BeginBlock>
    <BlockName> = "Air"
    <Mu_x> = 1
    <Mu_y> = 1
    <H_c> = 0
    <H_cAngle> = 0
    <J_re> = 0
    <J_im> = 0
    <Sigma> = 0
    <d_lam> = 0
    <Phi_h> = 0
    <Phi_hx> = 0
    <Phi_hy> = 0
    <LamType> = 0
    <LamFill> = 1
    <NStrands> = 0
    <WireD> = 0
    <BHPoints> = 0
  <EndBlock>
  <BeginBlock>
    <BlockName> = "NdFe35"
    <Mu_x> = 1.0997785
    <Mu_y> = 1.0997785
    <H_c> = 890000
    <H_cAngle> = 0
    <J_re> = 0
    <J_im> = 0
    <Sigma> = 0.625
    <d_lam> = 0
    <Phi_h> = 0
    <Phi_hx> = 0
    <Phi_hy> = 0
    <LamType> = 0
    <LamFill> = 1
    <NStrands> = 0
    <WireD> = 0
    <BHPoints> = 0
  <EndBlock>
  <BeginBlock>
    <BlockName> = "M19-24Ga"
    <Mu_x> = 1
    <Mu_y> = 1
    <H_c> = 0
    <H_cAngle> = 0
    <J_re> = 0
    <J_im> = 0
    <Sigma> = 1.8999999999999999
    <d_lam> = 0
    <Phi_h> = 0
    <Phi_hx> = 0
    <Phi_hy> = 0
    <LamType> = 0
    <LamFill> = 1
    <NStrands> = 0
    <WireD> = 0
    <BHPoints> = 187
      0	0
      0.51874914900000002	49.1195539
      0.66136273300000004	62.756099919999997
      0.72043521399999999	68.794536149999999
      0.76576312300000005	73.717304990000002
      0.80397631800000002	78.129869819999996
      0.83764281900000004	82.267761309999997
      0.86807966199999997	86.254403949999997
      0.896069228	90.166324549999999
      0.92212128000000004	94.056895609999998
      0.94658990300000001	97.966931709999997
      0.96973290199999995	101.9301186
      0.99174489899999996	105.9761075
      1.0127770979999999	110.13245000000001
      1.0329497409999999	114.4259191
      1.052360322	118.88349580000001
      1.071089188	123.5331765
      1.0892034880000001	128.4046917
      1.106760022	133.5302006
      1.123807346	138.94500310000001
      1.1403873529999999	144.68830740000001
      1.1565364890000001	150.8040848
      1.172286696	157.34204500000001
      1.187666154	164.35876519999999
      1.2026998739999999	171.9190088
      1.2174101749999999	180.09727430000001
      1.231817073	188.97961459999999
      1.245938601	198.66576989999999
      1.2597910729999999	209.27165099999999
      1.273389307	220.93220009999999
      1.2867468070000001	233.80463080000001
      1.2998759230000001	248.07200499999999
      1.3127879840000001	263.94703279999999
      1.3254934119999999	281.67587780000002
      1.338001821	301.54160250000001
      1.3503221009999999	323.8667231
      1.3624624949999999	349.01418510000002
      1.3744306580000001	377.38600439999999
      1.386233719	409.4189657
      1.397878328	445.57724300000001
      1.4093707	486.34266280000003
      1.4207166550000001	532.20437809999999
      1.43192165	583.65053469999998
      1.4429908119999999	641.1644976
      1.4539289639999999	705.22701670000004
      1.46474065	776.32359289999999
      1.4754301590000001	854.95407899999998
      1.486001541	941.6401525
      1.4964586280000001	1036.926234
      1.5068050479999999	1141.370617
      1.5170442420000001	1255.525588
      1.5271794780000001	1379.9077580000001
      1.5372138580000001	1514.962274
      1.5471503339999999	1661.0266180000001
      1.5569917179999999	1818.3007270000001
      1.5667406880000001	1986.8296230000001
      1.576399801	2166.5024069999999
      1.5859714949999999	2357.0680459999999
      1.595458102	2558.1647979999998
      1.6048618530000001	2769.3577770000002
      1.614184879	2990.178496
      1.6234292269999999	3220.1612260000002
      1.6325968529999999	3458.8728379999998
      1.641689639	3705.9348329999998
      1.6507093859999999	3961.0377680000001
      1.659657827	4223.9492819999996
      1.668536628	4494.5172279999997
      1.6773473889999999	4772.6694859999998
      1.6860916509999999	5058.4117230000002
      1.6947708960000001	5351.8241410000001
      1.7033865560000001	5653.0579289999996
      1.711940005	5962.3319069999998
      1.7204325739999999	6279.9296629999999
      1.728865544	6606.1973660000003
      1.737240152	6941.5423410000003
      1.745557593	7286.4324420000003
      1.7538190229999999	7641.3962300000003
      1.7620255570000001	8007.0239419999998
      1.7701782770000001	8383.9692460000006
      1.7782782260000001	8772.9517589999996
      1.7863264169999999	9174.7603180000006
      1.7943238290000001	9590.2570159999996
      1.8022714120000001	10020.38198
      1.810170085	10466.15893
      1.818020741	10928.701510000001
      1.8258242440000001	11409.220429999999
      1.8335814340000001	11909.031370000001
      1.8412931269999999	12429.563819999999
      1.8489601120000001	12972.37066
      1.85658316	13539.138580000001
      1.8641630170000001	14131.69939
      1.871700409	14752.042020000001
      1.8791960409999999	15402.32517
      1.8866506000000001	16084.890590000001
      1.894064755	16802.276539999999
      1.901439154	17557.231380000001
      1.9087744310000001	18352.726719999999
      1.9160712019999999	19191.96963
      1.9233300659999999	20078.413229999998
      1.93055161	21015.76468
      1.937736401	22007.989610000001
      1.9448849969999999	23059.311430000002
      1.9519979380000001	24174.204119999999
      1.959075753	25357.37672
      1.9661189569999999	26613.747449999999
      1.9731280529999999	27948.405739999998
      1.9801035309999999	29366.56021
      1.9870458710000001	30873.471280000002
      1.9939555410000001	32474.36766
      2.0008329969999998	34174.347000000002
      2.0076786869999999	35978.262329999998
      2.014493045	37890.597670000003
      2.0212764989999998	39915.337610000002
      2.0280294649999999	42055.837769999998
      2.0347523500000002	44314.7039
      2.0414455540000001	46693.688029999998
      2.048109465	49193.610000000001
      2.0547444650000002	51814.31076
      2.0613509269999999	54554.641880000003
      2.067929216	57412.492509999996
      2.0744796889999999	60384.85181
      2.0810026970000002	63467.901839999999
      2.0874985819999998	66657.133830000006
      2.0939676789999999	69947.479200000002
      2.1004103180000002	73333.446830000001
      2.1068268190000001	76809.258480000004
      2.1132175000000002	80368.975909999994
      2.1195826680000001	84006.614910000004
      2.1259226280000001	87716.243189999994
      2.1322376749999998	91492.061069999996
      2.1385281030000001	95328.464689999993
      2.1447941959999999	99220.093259999994
      2.1510362340000002	103161.8616
      2.1572544929999999	107148.9803
      2.1634492430000001	111176.966
      2.1696207470000002	115241.6424
      2.1757692660000001	119339.13619999999
      2.1818950539999999	123465.86780000001
      2.1879983620000001	127618.538
      2.194079436	131794.1139
      2.2001385170000001	135989.8125
      2.2061758409999999	140203.08410000001
      2.212191641	144431.59539999999
      2.2181861469999999	148673.21359999999
      2.224159582	152925.98999999999
      2.2301121670000001	157188.14550000001
      2.2360441190000002	161458.05590000001
      2.241955651	165734.2395
      2.2478469720000001	170015.34409999999
      2.253718289	174300.136
      2.2595698030000002	178587.4895
      2.2654017149999999	182876.37770000001
      2.271214219	187165.8633
      2.277007507	191455.09090000001
      2.2827817700000002	195743.27979999999
      2.2885371939999999	200029.71729999999
      2.294273961	204313.75270000001
      2.299992252	208594.7922
      2.3056922449999999	212872.2934
      2.3113741129999998	217145.7611
      2.3170380289999999	221414.7432
      2.3226841619999998	225678.8273
      2.3283126780000001	229937.63680000001
      2.333923741	234190.82800000001
      2.3395175130000001	238438.0877
      2.3450941520000002	242679.13029999999
      2.3506538149999998	246913.6955
      2.3561966550000002	251141.54639999999
      2.3617228259999998	255362.4676
      2.3672324749999998	259576.26310000001
      2.3727257509999999	263782.75510000001
      2.3782027989999999	267981.78269999998
      2.3836637610000002	272173.1998
      2.3891087789999998	276356.8749
      2.394537991	280532.68910000002
      2.399951535	284700.53580000001
      2.4053495439999999	288860.31910000002
      2.410732152	293011.95360000001
      2.4160994910000002	297155.36310000002
      2.4214516879999999	301290.4804
      2.426788873	305417.24599999998
      2.4321111700000002	309535.60800000001
      2.4374187030000001	313645.52130000002
      2.442711595	317746.9473
      2.4479899650000001	321839.85320000001
      2.4532539330000001	325924.21149999998
      2.4585036169999999	330000
  <EndBlock>
  <BeginBlock>
    <BlockName> = "Coil"
    <Mu_x> = 1
    <Mu_y> = 1
    <H_c> = 0
    <H_cAngle> = 0
    <J_re> = 0
    <J_im> = 0
    <Sigma> = 58
    <d_lam> = 0
    <Phi_h> = 0
    <Phi_hx> = 0
    <Phi_hy> = 0
    <LamType> = 0
    <LamFill> = 1
    <NStrands> = 0
    <WireD> = 7.0530648416636401
    <BHPoints> = 0
  <EndBlock>
[CircuitProps]  = 3
  <BeginCircuit>
    <CircuitName> = "U"
    <TotalAmps_re> = 338.35785730938767
    <TotalAmps_im> = 0
    <CircuitType> = 1
  <EndCircuit>
  <BeginCircuit>
    <CircuitName> = "V"
    <TotalAmps_re> = -338.35785730938767
    <TotalAmps_im> = 0
    <CircuitType> = 1
  <EndCircuit>
  <BeginCircuit>
    <CircuitName> = "W"
    <TotalAmps_re> = -1.4958294478081569e-13
    <TotalAmps_im> = 0
    <CircuitType> = 1
  <EndCircuit>
[NumPoints] = 74
19.740000000000002	0	0	3
50.120000000000005	0	0	3
50.120000000000005	20.960000000000001	0	3
19.740000000000002	20.960000000000001	0	3
19.740000000000002	17.085000000000001	0	3
21.060000000000002	17.085000000000001	0	3
23.600000000000001	18.385000000000002	0	3
36.340000000000003	18.385000000000002	0	3
36.340000000000003	13.055	0	3
23.600000000000001	13.055	0	3
21.060000000000002	14.355	0	3
19.740000000000002	14.355	0	3
19.740000000000002	6.6050000000000004	0	3
21.060000000000002	6.6050000000000004	0	3
23.600000000000001	7.9050000000000002	0	3
36.340000000000003	7.9050000000000002	0	3
36.340000000000003	2.5750000000000002	0	3
23.600000000000001	2.5750000000000002	0	3
21.060000000000002	3.875	0	3
19.740000000000002	3.875	0	3
19.740000000000002	-20.960000000000001	0	3
50.120000000000005	-20.960000000000001	0	3
19.740000000000002	-3.875	0	3
21.060000000000002	-3.875	0	3
23.600000000000001	-2.5749999999999993	0	3
36.340000000000003	-2.5749999999999993	0	3
36.340000000000003	-7.9050000000000011	0	3
23.600000000000001	-7.9050000000000011	0	3
21.060000000000002	-6.6050000000000004	0	3
19.740000000000002	-6.6050000000000004	0	3
19.740000000000002	-14.355	0	3
21.060000000000002	-14.355	0	3
23.600000000000001	-13.055	0	3
36.340000000000003	-13.055	0	3
36.340000000000003	-18.385000000000002	0	3
23.600000000000001	-18.385000000000002	0	3
21.060000000000002	-17.085000000000001	0	3
19.740000000000002	-17.085000000000001	0	3
19.740000000000002	-41.920000000000002	0	3
50.120000000000005	-41.920000000000002	0	3
19.740000000000002	-24.835000000000001	0	3
21.060000000000002	-24.835000000000001	0	3
23.600000000000001	-23.535	0	3
36.340000000000003	-23.535	0	3
36.340000000000003	-28.865000000000002	0	3
23.600000000000001	-28.865000000000002	0	3
21.060000000000002	-27.565000000000001	0	3
19.740000000000002	-27.565000000000001	0	3
19.740000000000002	-35.314999999999998	0	3
21.060000000000002	-35.314999999999998	0	3
23.600000000000001	-34.015000000000001	0	3
36.340000000000003	-34.015000000000001	0	3
36.340000000000003	-39.344999999999999	0	3
23.600000000000001	-39.344999999999999	0	3
21.060000000000002	-38.045000000000002	0	3
19.740000000000002	-38.045000000000002	0	3
5	36.68249999999999	0	1
5.0000000000000036	-26.197499999999991	0	1
16.934000000000005	-26.197499999999991	0	1
16.934000000000005	-21.007499999999986	0	1
16.190000000000005	-21.007499999999986	0	1
16.190000000000001	31.4925	0	1
16.934000000000001	31.4925	0	1
16.934000000000001	36.68249999999999	0	1
16.190000000000001	10.432499999999996	0	11
18.670000000000002	31.492499999999993	0	11
18.670000000000002	10.432499999999996	0	11
16.190000000000001	0.052500000000000213	0	12
18.670000000000002	0.052500000000000213	0	12
18.670000000000002	-21.0075	0	13
19.205000000000002	-26.197499999999991	0	2
19.205000000000002	36.68249999999999	0	2
0	-158.24953515487277	0	0
0	95.369535154872764	0	0
[NumSegments] = 93
0	1	-1	0	0	0
1	2	-1	0	0	0
2	3	-1	0	0	0
3	4	-1	0	0	0
4	5	-1	0	0	0
5	6	-1	0	0	0
6	7	-1	0	0	0
7	8	-1	0	0	0
8	9	-1	0	0	0
9	10	-1	0	0	0
10	11	-1	0	0	0
11	12	-1	0	0	0
12	13	-1	0	0	0
13	14	-1	0	0	0
14	15	-1	0	0	0
15	16	-1	0	0	0
16	17	-1	0	0	0
17	18	-1	0	0	0
18	19	-1	0	0	0
19	0	-1	0	0	0
20	21	-1	0	0	0
21	1	-1	0	0	0
0	22	-1	0	0	0
22	23	-1	0	0	0
23	24	-1	0	0	0
24	25	-1	0	0	0
25	26	-1	0	0	0
26	27	-1	0	0	0
27	28	-1	0	0	0
28	29	-1	0	0	0
29	30	-1	0	0	0
30	31	-1	0	0	0
31	32	-1	0	0	0
32	33	-1	0	0	0
33	34	-1	0	0	0
34	35	-1	0	0	0
35	36	-1	0	0	0
36	37	-1	0	0	0
37	20	-1	0	0	0
38	39	-1	0	0	0
39	21	-1	0	0	0
20	40	-1	0	0	0
40	41	-1	0	0	0
41	42	-1	0	0	0
42	43	-1	0	0	0
43	44	-1	0	0	0
44	45	-1	0	0	0
45	46	-1	0	0	0
46	47	-1	0	0	0
47	48	-1	0	0	0
48	49	-1	0	0	0
49	50	-1	0	0	0
50	51	-1	0	0	0
51	52	-1	0	0	0
52	53	-1	0	0	0
53	54	-1	0	0	0
54	55	-1	0	0	0
55	38	-1	0	0	0
56	57	-1	0	0	0
57	58	-1	0	0	0
58	59	-1	0	0	0
62	63	-1	0	0	0
63	56	-1	0	0	0
65	66	-1	0	0	0
66	64	-1	0	0	0
66	68	-1	0	0	0
68	67	-1	0	0	0
68	69	-1	0	0	0
18	13	-1	0	0	0
10	5	-1	0	0	0
19	12	-1	0	0	0
11	4	-1	0	0	0
36	31	-1	0	0	0
28	23	-1	0	0	0
37	30	-1	0	0	0
29	22	-1	0	0	0
54	49	-1	0	0	0
46	41	-1	0	0	0
55	48	-1	0	0	0
47	40	-1	0	0	0
70	71	-1	0	0	0
38	70	-1	0	0	0
3	71	-1	0	0	0
70	58	-1	0	0	0
71	63	-1	0	0	0
72	73	-1	0	0	0
64	61	-1	0	0	0
61	62	-1	0	0	0
62	65	-1	0	0	0
60	59	-1	0	0	0
59	69	-1	0	0	0
67	64	-1	0	0	0
60	67	-1	0	0	0
[NumArcSegments] = 1
72	73	180	1	0	0	0
[NumHoles] = 0
[NumBlockLabels] = 22
23.600000000000001	10.48	3	2	0	0	3	1	0
23.600000000000001	-10.48	3	2	0	0	3	1	0
23.600000000000001	-31.440000000000001	3	2	0	0	3	1	0
10.595000000000002	5.242500000000005	3	2	0	0	1	1	0
17.43	20.962499999999999	2	2	0	180	11	1	0
17.43	5.242500000000005	2	2	0	270	12	1	0
17.43	-10.477500000000001	2	2	0	360	13	1	0
60.120000000000005	10.48	1	4	0	0	0	1	0
20.400000000000002	15.720000000000001	1	2.5	0	0	5	1	0
20.400000000000002	5.2400000000000002	1	2.5	0	0	5	1	0
20.400000000000002	-5.2400000000000002	1	2.5	0	0	5	1	0
20.400000000000002	-15.720000000000001	1	2.5	0	0	5	1	0
20.400000000000002	-26.200000000000003	1	2.5	0	0	5	1	0
20.400000000000002	-36.68	1	2.5	0	0	5	1	0
19.472500000000004	10.48	1	0.40000000000000002	0	0	5	1	0
18.937499999999996	5.242500000000005	1	0.40000000000000002	0	0	2	1	0
29.970000000000002	15.720000000000001	4	3	1	0	4	-1	0
29.970000000000002	5.2400000000000002	4	3	3	0	4	1	0
29.970000000000002	-5.2400000000000002	4	3	2	0	4	-1	0
29.970000000000002	-15.720000000000001	4	3	2	0	4	1	0
29.970000000000002	-26.200000000000003	4	3	3	0	4	-1	0
29.970000000000002	-36.680000000000007	4	3	1	0	4	1	0
